** PARTS 
*Part, name=Part-1
*Node
      1,          0.5, 0.0500000007
      2,          0.5,           0.
      3,          1.5,           0.
      4,          1.5, 0.0500000007
      5,           0., 0.0500000007
      6,           0.,           0.
      7,          0.5, 0.0450000018
      8,          0.5, 0.0399999991
      9,          0.5, 0.0350000001
     10,          0.5, 0.0299999993
     11,          0.5, 0.0250000004
     12,          0.5, 0.0199999996
     13,          0.5, 0.0149999997
     14,          0.5, 0.00999999978
     15,          0.5, 0.00499999989
     16,  0.501999974,           0.
     17,  0.504000008,           0.
     18,  0.505999982,           0.
     19,  0.508000016,           0.
     20,   0.50999999,           0.
** ... 8241 like lines cut
** VUEL ELEMENTS
*USER ELEMENT, TYPE=VU2, NODES=4, COORDINATES=2, PROPERTIES=18, VARIABLES=44
1,2,11
*ELEMENT, type=VU2, elset=pfczm
   1,    1,    7, 1530, 1022
   2,    7,    8, 1531, 1530
   3,    8,    9, 1532, 1531
   4,    9,   10, 1533, 1532
   5,   10,   11, 1534, 1533
   6,   11,   12, 1535, 1534
   7,   12,   13, 1536, 1535
   8,   13,   14, 1537, 1536
   9,   14,   15, 1538, 1537
  10,   15,    2,   16, 1538
  11, 1022, 1530, 1539, 1021
  12, 1530, 1531, 1540, 1539
  13, 1531, 1532, 1541, 1540
  14, 1532, 1533, 1542, 1541
  15, 1533, 1534, 1543, 1542
  16, 1534, 1535, 1544, 1543
  17, 1535, 1536, 1545, 1544
  18, 1536, 1537, 1546, 1545
  19, 1537, 1538, 1547, 1546
  20, 1538,   16,   17, 1547
** ... 7480 like lines cut
*UEL PROPERTY, ELSET=pfczm
** Unit g,mm,ms
 117.0e3, 0.34, 2.5e3, 230.0, 0.8, 4.0e-3, 1.0, 8.924e-3,
 1.0e-5, 1.0e-8, 2.0e-3, 1.2, 0.06, 3910.0, 1.51, 2.0,
 0.0, 2.0
** DUMMY ELEMENTS
*ELEMENT,TYPE=CPE4R,ELSET=DUMMY
10000001,    1,    7, 1530, 1022
10000002,    7,    8, 1531, 1530
10000003,    8,    9, 1532, 1531
10000004,    9,   10, 1533, 1532
10000005,   10,   11, 1534, 1533
10000006,   11,   12, 1535, 1534
10000007,   12,   13, 1536, 1535
10000008,   13,   14, 1537, 1536
10000009,   14,   15, 1538, 1537
10000010,   15,    2,   16, 1538
10000011, 1022, 1530, 1539, 1021
10000012, 1530, 1531, 1540, 1539
10000013, 1531, 1532, 1541, 1540
10000014, 1532, 1533, 1542, 1541
10000015, 1533, 1534, 1543, 1542
10000016, 1534, 1535, 1544, 1543
10000017, 1535, 1536, 1545, 1544
10000018, 1536, 1537, 1546, 1545
10000019, 1537, 1538, 1547, 1546
10000020, 1538,   16,   17, 1547
** ... 7480 like lines cut
*SOLID SECTION,ELSET=DUMMY,MATERIAL=DUMMY 
*End Part
** ASSEMBLY
**
*Assembly, name=Assembly
**  
*Instance, name=Part-1-1, part=Part-1
*End Instance
** 
*Nset, nset=NSET-all, instance=Part-1-1, generate
 1,  8261,  1
*Nset, nset=SET-1, instance=Part-1-1
    1,    2,    5,    6,    7,    8,    9,   10,   11,   12,   13,   14,   15, 1023, 1024, 1025
 1026, 1027, 1028, 1029, 1030, 1031, 1032, 1033, 1034, 1035, 1036, 1037, 1038, 1039, 1040, 1041
 1042, 1043, 1044, 1045, 1046, 1047, 1048, 1049, 1050, 1051, 1052, 1053, 1054, 1055, 1056, 1057
 1058, 1059, 1060, 1061, 1062, 1063, 1064, 1065, 1066, 1067, 1068, 1069, 1070, 1071, 1072, 1073
 1074, 1075, 1076, 1077, 1078, 1079, 1080, 1081, 1082, 1083, 1084, 1085, 1086, 1087, 1088, 1089
 1090, 1091, 1092, 1093, 1094, 1095, 1096, 1097, 1098, 1099, 1100, 1101, 1102, 1103, 1104, 1105
 1106, 1107, 1108, 1109, 1110, 1111, 1112, 1113, 1114, 1115, 1116, 1117, 1118, 1119, 1120, 1121
 1122, 1123, 1124, 1125, 1126, 1127, 1128, 1129, 1130, 1131, 1132, 1133, 1134, 1135, 1136, 1137
 1138, 1139, 1140, 1141, 1142, 1143, 1144, 1145, 1146, 1147, 1148, 1149, 1150, 1151, 1152, 1153
 1154, 1155, 1156, 1157, 1158, 1159, 1160, 1161, 1162, 1163, 1164, 1165, 1166, 1167, 1168, 1169
 1170, 1171, 1172, 1173, 1174, 1175, 1176, 1177, 1178, 1179, 1180, 1181, 1182, 1183, 1184, 1185
 1186, 1187, 1188, 1189, 1190, 1191, 1192, 1193, 1194, 1195, 1196, 1197, 1198, 1199, 1200, 1201
 1202, 1203, 1204, 1205, 1206, 1207, 1208, 1209, 1210, 1211, 1212, 1213, 1214, 1215, 1216, 1217
 1218, 1219, 1220, 1221, 1222, 1223, 1224, 1225, 1226, 1227, 1228, 1229, 1230, 1231, 1232, 1233
 1234, 1235, 1236, 1237, 1238, 1239, 1240, 1241, 1242, 1243, 1244, 1245, 1246, 1247, 1248, 1249
 1250, 1251, 1252, 1253, 1254, 1255, 1256, 1257, 1258, 1259, 1260, 1261, 1262, 1263, 1264, 1265
 1266, 1267, 1268, 1269, 1270, 1271, 1272, 1273, 1274, 1275, 1276, 1277, 1278, 1279, 1280, 1281
 1282, 1283, 1284, 1285, 1286, 1287, 1288, 1289, 1290, 1291, 1292, 1293, 1294, 1295, 1296, 1297
 1298, 1299, 1300, 1301, 1302, 1303, 1304, 1305, 1306, 1307, 1308, 1309, 1310, 1311, 1312, 1313
 1314, 1315, 1316, 1317, 1318, 1319, 1320, 1321, 1322, 1323, 1324, 1325, 1326, 1327, 1328, 1329
** ... 153 like lines cut
*Nset, nset=SET-2, instance=Part-1-1
    1,    2,    3,    4,    5,    6,   16,   17,   18,   19,   20,   21,   22,   23,   24,   25
   26,   27,   28,   29,   30,   31,   32,   33,   34,   35,   36,   37,   38,   39,   40,   41
   42,   43,   44,   45,   46,   47,   48,   49,   50,   51,   52,   53,   54,   55,   56,   57
   58,   59,   60,   61,   62,   63,   64,   65,   66,   67,   68,   69,   70,   71,   72,   73
   74,   75,   76,   77,   78,   79,   80,   81,   82,   83,   84,   85,   86,   87,   88,   89
   90,   91,   92,   93,   94,   95,   96,   97,   98,   99,  100,  101,  102,  103,  104,  105
  106,  107,  108,  109,  110,  111,  112,  113,  114,  115,  116,  117,  118,  119,  120,  121
  122,  123,  124,  125,  126,  127,  128,  129,  130,  131,  132,  133,  134,  135,  136,  137
  138,  139,  140,  141,  142,  143,  144,  145,  146,  147,  148,  149,  150,  151,  152,  153
  154,  155,  156,  157,  158,  159,  160,  161,  162,  163,  164,  165,  166,  167,  168,  169
  170,  171,  172,  173,  174,  175,  176,  177,  178,  179,  180,  181,  182,  183,  184,  185
  186,  187,  188,  189,  190,  191,  192,  193,  194,  195,  196,  197,  198,  199,  200,  201
  202,  203,  204,  205,  206,  207,  208,  209,  210,  211,  212,  213,  214,  215,  216,  217
  218,  219,  220,  221,  222,  223,  224,  225,  226,  227,  228,  229,  230,  231,  232,  233
  234,  235,  236,  237,  238,  239,  240,  241,  242,  243,  244,  245,  246,  247,  248,  249
  250,  251,  252,  253,  254,  255,  256,  257,  258,  259,  260,  261,  262,  263,  264,  265
  266,  267,  268,  269,  270,  271,  272,  273,  274,  275,  276,  277,  278,  279,  280,  281
  282,  283,  284,  285,  286,  287,  288,  289,  290,  291,  292,  293,  294,  295,  296,  297
  298,  299,  300,  301,  302,  303,  304,  305,  306,  307,  308,  309,  310,  311,  312,  313
  314,  315,  316,  317,  318,  319,  320,  321,  322,  323,  324,  325,  326,  327,  328,  329
** ... 74 like lines cut
*Nset, nset=SET-3, instance=Part-1-1
    3,    4,    5,    6,  515,  516,  517,  518,  519,  520,  521,  522,  523, 1272, 1273, 1274
 1275, 1276, 1277, 1278, 1279, 1280
*Elset, elset=ElSET-all, instance=Part-1-1, generate
 1,  7500,  1
**
*End Assembly
**
** DUMMY MATERIAL
*MATERIAL,NAME=DUMMY
*DENSITY
1.0E-6
*ELASTIC
1.0E-8, 0.2
*Depvar
     1
*User Defined Field
** 
** PREDEFINED FIELDS
** 
** Name: IC-1   Type: Velocity
*Initial Conditions, type=VELOCITY
SET-1, 1, 250.
** ----------------------------------------------------------------
** 
** STEP: Step-1
** 
*Step, name=Step-1, nlgeom=NO
*Dynamic Temperature-displacement, Explicit, direct user control
1e-8, 0.001
**
** BOUNDARY CONDITIONS
** 
** Name: Disp-BC-1 Type: λ҆/ת½Ǎ
*Boundary
SET-2, 2, 2
*Boundary
SET-3, 11, 11
** 
** OUTPUT REQUESTS
** 
*Restart, write, number interval=1, time marks=NO
** 
** FIELD OUTPUT: F-Output-1
** 
*Output, field, time interval=1e-6
*Node Output
A, NT, U, V
*Element Output, directions=YES
E, MISES, S, SDV
** 
** HISTORY OUTPUT: H-Output-1
** 
*Output, history, time interval=5e-6
*Energy Output
ALLKE, ALLSE, ETOTAL
*End Step